[General]
network = ch
experiment-label = ${configname}
record-eventlog = true
repeat = 1
sim-time-limit = 1000000s
warmup-period = 100000s
**.sorgente.interArrivalTime = exponential(4.25s)
**.server.serviceTime = exponential(3s)

